Version 4
SHEET 1 880 680
WIRE 416 32 0 32
WIRE 0 160 0 32
WIRE 112 160 0 160
WIRE 416 192 416 32
WIRE 416 192 304 192
WIRE 576 192 416 192
WIRE 112 224 -112 224
FLAG 576 192 V2
IOPIN 576 192 In
FLAG -112 224 V1
IOPIN -112 224 In
SYMBOL CCII+ 208 192 R0
SYMATTR InstName X1
