Version 4
SHEET 1 1512 680
WIRE 432 32 336 32
WIRE 608 32 512 32
WIRE -48 128 -192 128
WIRE 336 128 336 32
WIRE 336 128 144 128
WIRE 608 128 608 32
WIRE 800 128 608 128
WIRE 1136 128 992 128
WIRE 1344 128 1216 128
WIRE 336 224 336 128
WIRE 448 224 336 224
WIRE 608 224 608 128
WIRE 608 224 512 224
FLAG -192 128 V1
IOPIN -192 128 In
FLAG 1344 128 V2
IOPIN 1344 128 In
SYMBOL cap 512 208 R90
WINDOW 0 0 32 VBottom 2
WINDOW 3 32 32 VTop 2
SYMATTR InstName C1
SYMATTR Value 16p
SYMBOL res 528 16 R90
WINDOW 0 0 56 VBottom 2
WINDOW 3 32 56 VTop 2
SYMATTR InstName R1
SYMATTR Value 20k
SYMBOL res 1232 112 R90
WINDOW 0 0 56 VBottom 2
WINDOW 3 32 56 VTop 2
SYMATTR InstName R2
SYMATTR Value 20k
SYMBOL I-NIC 48 128 R0
SYMATTR InstName X1
SYMBOL I-NIC 896 128 M0
SYMATTR InstName X2
