Version 4
SHEET 1 880 680
WIRE 464 0 -16 0
WIRE -16 160 -16 0
WIRE 144 160 -16 160
WIRE 464 192 464 0
WIRE 464 192 336 192
WIRE 640 192 464 192
WIRE 144 224 -80 224
FLAG -80 224 V1
IOPIN -80 224 In
FLAG 640 192 V2
IOPIN 640 192 Out
SYMBOL CCII+ 240 192 R0
SYMATTR InstName X1
