Version 4
SHEET 1 1236 1144
WIRE 16 64 -128 64
WIRE 208 64 96 64
WIRE 336 64 208 64
WIRE 528 64 416 64
WIRE 704 64 528 64
WIRE -128 160 -128 64
WIRE 208 176 208 64
WIRE 528 176 528 64
WIRE 704 176 704 64
WIRE -128 352 -128 240
WIRE 208 352 208 240
WIRE 208 352 -128 352
WIRE 528 352 528 240
WIRE 528 352 208 352
WIRE 704 352 704 256
WIRE 704 352 528 352
WIRE -128 416 -128 352
WIRE 16 752 -128 752
WIRE 208 752 96 752
WIRE 288 752 208 752
WIRE 528 752 448 752
WIRE 704 752 528 752
WIRE -128 848 -128 752
WIRE 208 864 208 752
WIRE 528 864 528 752
WIRE 704 864 704 752
WIRE -128 1040 -128 928
WIRE 208 1040 208 928
WIRE 208 1040 -128 1040
WIRE 528 1040 528 928
WIRE 528 1040 208 1040
WIRE 704 1040 704 944
WIRE 704 1040 528 1040
WIRE -128 1104 -128 1040
FLAG -128 64 Vin
FLAG 704 64 Vout
FLAG -128 752 Vin_
FLAG 704 752 Vout_
FLAG -128 416 0
FLAG -128 1104 0
SYMBOL res 112 48 R90
WINDOW 0 0 56 VBottom 2
WINDOW 3 32 56 VTop 2
SYMATTR InstName Rs
SYMATTR Value 2k
SYMBOL ind 432 48 R90
WINDOW 0 5 56 VBottom 2
WINDOW 3 32 56 VTop 2
SYMATTR InstName L1
SYMATTR Value 6.4m
SYMBOL cap 192 176 R0
SYMATTR InstName C1
SYMATTR Value 0.8n
SYMBOL cap 512 176 R0
SYMATTR InstName C2
SYMATTR Value 0.8n
SYMBOL res 688 160 R0
SYMATTR InstName Rload
SYMATTR Value 2k
SYMBOL voltage -128 144 R0
WINDOW 123 24 124 Left 2
WINDOW 39 0 0 Left 0
SYMATTR Value2 AC 1
SYMATTR InstName V1
SYMATTR Value ""
SYMBOL res 112 736 R90
WINDOW 0 0 56 VBottom 2
WINDOW 3 32 56 VTop 2
SYMATTR InstName Rs_
SYMATTR Value 2k
SYMBOL cap 192 864 R0
SYMATTR InstName C1_
SYMATTR Value 0.8n
SYMBOL cap 512 864 R0
SYMATTR InstName C2_
SYMATTR Value 0.8n
SYMBOL res 688 848 R0
SYMATTR InstName Rload_
SYMATTR Value 2k
SYMBOL voltage -128 832 R0
WINDOW 123 24 124 Left 2
WINDOW 39 0 0 Left 0
SYMATTR Value2 AC 1
SYMATTR InstName V1_
SYMATTR Value ""
SYMBOL floating_inductor__bonus 368 752 R0
SYMATTR InstName X1
TEXT 192 552 Left 2 !.ac dec 10 10 10Meg
